# MOF-5 (IRMOF-1, Zn4O(BDC)3)
# The first and most famous MOF structure
# High surface area, cubic topology
data_MOF-5
_symmetry_space_group_name_H-M   'F m -3 m'
_symmetry_Int_Tables_number      225
_cell_length_a                   25.832
_cell_length_b                   25.832
_cell_length_c                   25.832
_cell_angle_alpha                90.000
_cell_angle_beta                 90.000
_cell_angle_gamma                90.000

loop_
_atom_site_label
_atom_site_type_symbol
_atom_site_fract_x
_atom_site_fract_y
_atom_site_fract_z
_atom_site_occupancy
Zn1  Zn   0.29440   0.29440   0.29440   1.0
O1   O    0.25000   0.25000   0.25000   1.0
O2   O    0.21920   0.37220   0.37220   1.0
C1   C    0.17210   0.39100   0.39100   1.0
C2   C    0.11280   0.38420   0.38420   1.0
C3   C    0.06450   0.43550   0.43550   1.0
H1   H    0.06780   0.46780   0.46780   1.0
