# UiO-66 (Zr6O4(OH)4(BDC)6)
# University of Oslo, extremely stable Zr-based MOF
# High thermal, chemical, and mechanical stability
data_UiO-66
_symmetry_space_group_name_H-M   'F m -3 m'
_symmetry_Int_Tables_number      225
_cell_length_a                   20.7004
_cell_length_b                   20.7004
_cell_length_c                   20.7004
_cell_angle_alpha                90.000
_cell_angle_beta                 90.000
_cell_angle_gamma                90.000

loop_
_atom_site_label
_atom_site_type_symbol
_atom_site_fract_x
_atom_site_fract_y
_atom_site_fract_z
_atom_site_occupancy
Zr1  Zr   0.29480   0.29480   0.29480   1.0
O1   O    0.25000   0.25000   0.25000   1.0
O2   O    0.21020   0.37350   0.37350   1.0
O3   O    0.37350   0.37350   0.21020   1.0
C1   C    0.16120   0.39440   0.39440   1.0
C2   C    0.09620   0.40380   0.40380   1.0
C3   C    0.04620   0.45380   0.45380   1.0
H1   H    0.05620   0.48380   0.48380   1.0
