# ZIF-8 (Zn(mIM)2, Zeolitic Imidazolate Framework-8)
# Sodalite topology, high chemical and thermal stability
# Widely used for gas separation
data_ZIF-8
_symmetry_space_group_name_H-M   'I -4 3 m'
_symmetry_Int_Tables_number      217
_cell_length_a                   16.991
_cell_length_b                   16.991
_cell_length_c                   16.991
_cell_angle_alpha                90.000
_cell_angle_beta                 90.000
_cell_angle_gamma                90.000

loop_
_atom_site_label
_atom_site_type_symbol
_atom_site_fract_x
_atom_site_fract_y
_atom_site_fract_z
_atom_site_occupancy
Zn1  Zn   0.00000   0.25000   0.12500   1.0
N1   N    0.10370   0.18560   0.10370   1.0
C1   C    0.14780   0.14780   0.03790   1.0
C2   C    0.21500   0.21500   0.21500   1.0
H1   H    0.12310   0.12310  -0.01390   1.0
H2   H    0.26300   0.26300   0.26300   1.0
